MODEL 1
REMARK VINA RESULT:      -5.3      0.000      0.000
REMARK  Name = 3d83_ligand
REMARK  7 active torsions:
REMARK  status: ('A' for Active; 'I' for Inactive)
REMARK    1  A    between atoms: C24_2  and  C21_8
REMARK    2  A    between atoms: N4_3  and  C25_4
REMARK    3  A    between atoms: C25_4  and  C26_5
REMARK    4  A    between atoms: C18_13  and  C17_14
REMARK    5  A    between atoms: C2_15  and  C1_16
REMARK    6  A    between atoms: C5_18  and  N1_21
REMARK    7  A    between atoms: C6_22  and  C7_24
REMARK                            x       y       z     vdW  Elec       q    Type
REMARK                         _______ _______ _______ _____ _____    ______ ____
ROOT
ATOM      1  C17 GK6 A   1      -2.086  -3.656   1.271  0.00  0.00    -0.042 A 
ATOM      2  C2  GK6 A   1      -2.310  -4.617   0.270  0.00  0.00    -0.074 A 
ATOM      3  C1  GK6 A   1      -1.307  -5.723   0.036  0.00  0.00    +0.106 C 
ATOM      4  C16 GK6 A   1      -3.055  -2.654   1.452  0.00  0.00    +0.050 A 
ATOM      5  C5  GK6 A   1      -4.202  -2.583   0.624  0.00  0.00    +0.009 A 
ATOM      6  C4  GK6 A   1      -4.398  -3.538  -0.381  0.00  0.00    +0.033 A 
ATOM      7  C3  GK6 A   1      -3.446  -4.562  -0.552  0.00  0.00    +0.000 A 
ENDROOT
BRANCH   1  13
ATOM      8  C21 GK6 A   1       1.395  -3.933   3.692  0.00  0.00    +0.032 A 
ATOM      9  C20 GK6 A   1       1.459  -3.368   2.418  0.00  0.00    +0.058 A 
ATOM     10  C19 GK6 A   1       0.312  -3.293   1.597  0.00  0.00    +0.030 A 
ATOM     11  C22 GK6 A   1       0.168  -4.420   4.152  0.00  0.00    +0.058 A 
ATOM     12  C23 GK6 A   1      -0.977  -4.343   3.333  0.00  0.00    +0.030 A 
ATOM     13  C18 GK6 A   1      -0.909  -3.790   2.046  0.00  0.00    -0.046 A 
BRANCH   8  15
ATOM     14  O3  GK6 A   1       3.461  -4.935   4.413  0.00  0.00    -0.440 OA
ATOM     15  C24 GK6 A   1       2.651  -4.013   4.570  0.00  0.00    +0.137 C 
ATOM     16  N4  GK6 A   1       2.824  -3.088   5.535  0.00  0.00    -0.316 N 
ATOM     17  H1  GK6 A   1       2.150  -2.352   5.613  0.00  0.00    +0.220 HD
BRANCH  16  18
ATOM     18  C25 GK6 A   1       3.946  -3.104   6.474  0.00  0.00    +0.165 C 
BRANCH  18  19
ATOM     19  C26 GK6 A   1       3.480  -3.296   7.924  0.00  0.00    +0.011 C 
ATOM     20  C28 GK6 A   1       4.245  -4.471   8.537  0.00  0.00    +0.017 C 
ATOM     21  C27 GK6 A   1       4.614  -3.041   8.917  0.00  0.00    +0.017 C 
ENDBRANCH  18  19
ENDBRANCH  16  18
ENDBRANCH   8  15
ENDBRANCH   1  13
BRANCH   5  22
ATOM     22  N1  GK6 A   1      -5.134  -1.595   0.772  0.00  0.00    -0.264 N 
ATOM     23  C6  GK6 A   1      -5.000  -0.307   0.364  0.00  0.00    +0.170 C 
ATOM     24  O1  GK6 A   1      -3.948   0.191  -0.026  0.00  0.00    -0.419 OA
ATOM     25  H19 GK6 A   1      -5.993  -1.842   1.221  0.00  0.00    +0.273 HD
BRANCH  23  26
ATOM     26  C7  GK6 A   1      -6.196   0.636   0.422  0.00  0.00    +0.064 A 
ATOM     27  C11 GK6 A   1      -6.265   1.623   1.432  0.00  0.00    +0.135 A 
ATOM     28  C10 GK6 A   1      -7.391   2.471   1.490  0.00  0.00    +0.043 A 
ATOM     29  N2  GK6 A   1      -8.391   2.295   0.591  0.00  0.00    -0.295 NA
ATOM     30  C9  GK6 A   1      -8.353   1.350  -0.378  0.00  0.00    +0.101 A 
ATOM     31  C8  GK6 A   1      -7.257   0.486  -0.486  0.00  0.00    +0.086 A 
ATOM     32  N3  GK6 A   1      -7.497   3.451   2.508  0.00  0.00    -0.337 N 
ATOM     33  C15 GK6 A   1      -8.806   4.064   2.733  0.00  0.00    +0.202 C 
ATOM     34  C14 GK6 A   1      -8.658   5.397   3.469  0.00  0.00    +0.218 C 
ATOM     35  O2  GK6 A   1      -7.736   5.263   4.548  0.00  0.00    -0.453 OA
ATOM     36  C13 GK6 A   1      -6.431   5.073   4.008  0.00  0.00    +0.218 C 
ATOM     37  C12 GK6 A   1      -6.324   3.681   3.379  0.00  0.00    +0.202 C 
ENDBRANCH  23  26
ENDBRANCH   5  22
TORSDOF 6
ENDMDL
MODEL 2
REMARK VINA RESULT:      -5.2      2.100      3.166
REMARK  Name = 3d83_ligand
REMARK  7 active torsions:
REMARK  status: ('A' for Active; 'I' for Inactive)
REMARK    1  A    between atoms: C24_2  and  C21_8
REMARK    2  A    between atoms: N4_3  and  C25_4
REMARK    3  A    between atoms: C25_4  and  C26_5
REMARK    4  A    between atoms: C18_13  and  C17_14
REMARK    5  A    between atoms: C2_15  and  C1_16
REMARK    6  A    between atoms: C5_18  and  N1_21
REMARK    7  A    between atoms: C6_22  and  C7_24
REMARK                            x       y       z     vdW  Elec       q    Type
REMARK                         _______ _______ _______ _____ _____    ______ ____
ROOT
ATOM      1  C17 GK6 A   1      -2.680  -3.483   0.955  0.00  0.00    -0.042 A 
ATOM      2  C2  GK6 A   1      -3.174  -4.611   0.279  0.00  0.00    -0.074 A 
ATOM      3  C1  GK6 A   1      -2.408  -5.913   0.307  0.00  0.00    +0.106 C 
ATOM      4  C16 GK6 A   1      -3.437  -2.300   0.905  0.00  0.00    +0.050 A 
ATOM      5  C5  GK6 A   1      -4.638  -2.227   0.157  0.00  0.00    +0.009 A 
ATOM      6  C4  GK6 A   1      -5.103  -3.357  -0.528  0.00  0.00    +0.033 A 
ATOM      7  C3  GK6 A   1      -4.367  -4.555  -0.459  0.00  0.00    +0.000 A 
ENDROOT
BRANCH   1  13
ATOM      8  C21 GK6 A   1       0.940  -3.787   3.159  0.00  0.00    +0.032 A 
ATOM      9  C20 GK6 A   1       0.963  -3.546   1.786  0.00  0.00    +0.058 A 
ATOM     10  C19 GK6 A   1      -0.234  -3.467   1.040  0.00  0.00    +0.030 A 
ATOM     11  C22 GK6 A   1      -0.295  -3.941   3.796  0.00  0.00    +0.058 A 
ATOM     12  C23 GK6 A   1      -1.490  -3.860   3.053  0.00  0.00    +0.030 A 
ATOM     13  C18 GK6 A   1      -1.467  -3.634   1.669  0.00  0.00    -0.046 A 
BRANCH   8  15
ATOM     14  O3  GK6 A   1       3.146  -4.648   3.589  0.00  0.00    -0.440 OA
ATOM     15  C24 GK6 A   1       2.250  -3.876   3.953  0.00  0.00    +0.137 C 
ATOM     16  N4  GK6 A   1       2.380  -3.134   5.071  0.00  0.00    -0.316 N 
ATOM     17  H1  GK6 A   1       1.634  -2.513   5.317  0.00  0.00    +0.220 HD
BRANCH  16  18
ATOM     18  C25 GK6 A   1       3.553  -3.189   5.943  0.00  0.00    +0.165 C 
BRANCH  18  19
ATOM     19  C26 GK6 A   1       3.353  -4.158   7.117  0.00  0.00    +0.011 C 
ATOM     20  C28 GK6 A   1       3.461  -3.375   8.427  0.00  0.00    +0.017 C 
ATOM     21  C27 GK6 A   1       2.094  -3.819   7.917  0.00  0.00    +0.017 C 
ENDBRANCH  18  19
ENDBRANCH  16  18
ENDBRANCH   8  15
ENDBRANCH   1  13
BRANCH   5  22
ATOM     22  N1  GK6 A   1      -5.365  -1.073   0.076  0.00  0.00    -0.264 N 
ATOM     23  C6  GK6 A   1      -6.169  -0.570   1.047  0.00  0.00    +0.170 C 
ATOM     24  O1  GK6 A   1      -6.499  -1.180   2.059  0.00  0.00    -0.419 OA
ATOM     25  H19 GK6 A   1      -5.298  -0.551  -0.775  0.00  0.00    +0.273 HD
BRANCH  23  26
ATOM     26  C7  GK6 A   1      -6.766   0.825   0.891  0.00  0.00    +0.064 A 
ATOM     27  C11 GK6 A   1      -7.081   1.313  -0.398  0.00  0.00    +0.135 A 
ATOM     28  C10 GK6 A   1      -7.608   2.616  -0.530  0.00  0.00    +0.043 A 
ATOM     29  N2  GK6 A   1      -7.769   3.373   0.584  0.00  0.00    -0.295 NA
ATOM     30  C9  GK6 A   1      -7.466   2.930   1.827  0.00  0.00    +0.101 A 
ATOM     31  C8  GK6 A   1      -6.946   1.645   2.016  0.00  0.00    +0.086 A 
ATOM     32  N3  GK6 A   1      -7.906   3.140  -1.812  0.00  0.00    -0.337 N 
ATOM     33  C15 GK6 A   1      -8.122   4.582  -1.927  0.00  0.00    +0.202 C 
ATOM     34  C14 GK6 A   1      -8.901   4.911  -3.202  0.00  0.00    +0.218 C 
ATOM     35  O2  GK6 A   1      -8.373   4.177  -4.304  0.00  0.00    -0.453 OA
ATOM     36  C13 GK6 A   1      -8.676   2.797  -4.115  0.00  0.00    +0.218 C 
ATOM     37  C12 GK6 A   1      -7.829   2.228  -2.973  0.00  0.00    +0.202 C 
ENDBRANCH  23  26
ENDBRANCH   5  22
TORSDOF 6
ENDMDL
MODEL 3
REMARK VINA RESULT:      -5.2      5.500     12.185
REMARK  Name = 3d83_ligand
REMARK  7 active torsions:
REMARK  status: ('A' for Active; 'I' for Inactive)
REMARK    1  A    between atoms: C24_2  and  C21_8
REMARK    2  A    between atoms: N4_3  and  C25_4
REMARK    3  A    between atoms: C25_4  and  C26_5
REMARK    4  A    between atoms: C18_13  and  C17_14
REMARK    5  A    between atoms: C2_15  and  C1_16
REMARK    6  A    between atoms: C5_18  and  N1_21
REMARK    7  A    between atoms: C6_22  and  C7_24
REMARK                            x       y       z     vdW  Elec       q    Type
REMARK                         _______ _______ _______ _____ _____    ______ ____
ROOT
ATOM      1  C17 GK6 A   1      -0.853  -3.484   0.670  0.00  0.00    -0.042 A 
ATOM      2  C2  GK6 A   1      -1.857  -2.555   0.995  0.00  0.00    -0.074 A 
ATOM      3  C1  GK6 A   1      -3.008  -2.314   0.046  0.00  0.00    +0.106 C 
ATOM      4  C16 GK6 A   1       0.190  -3.677   1.592  0.00  0.00    +0.050 A 
ATOM      5  C5  GK6 A   1       0.259  -2.926   2.791  0.00  0.00    +0.009 A 
ATOM      6  C4  GK6 A   1      -0.740  -1.990   3.087  0.00  0.00    +0.033 A 
ATOM      7  C3  GK6 A   1      -1.805  -1.811   2.184  0.00  0.00    +0.000 A 
ENDROOT
BRANCH   1  13
ATOM      8  C21 GK6 A   1      -1.160  -5.701  -2.942  0.00  0.00    +0.032 A 
ATOM      9  C20 GK6 A   1      -0.361  -4.560  -2.875  0.00  0.00    +0.058 A 
ATOM     10  C19 GK6 A   1      -0.272  -3.803  -1.685  0.00  0.00    +0.030 A 
ATOM     11  C22 GK6 A   1      -1.870  -6.095  -1.803  0.00  0.00    +0.058 A 
ATOM     12  C23 GK6 A   1      -1.779  -5.341  -0.616  0.00  0.00    +0.030 A 
ATOM     13  C18 GK6 A   1      -0.989  -4.184  -0.553  0.00  0.00    -0.046 A 
BRANCH   8  15
ATOM     14  O3  GK6 A   1      -1.877  -7.577  -4.268  0.00  0.00    -0.440 OA
ATOM     15  C24 GK6 A   1      -1.252  -6.509  -4.243  0.00  0.00    +0.137 C 
ATOM     16  N4  GK6 A   1      -0.604  -6.053  -5.333  0.00  0.00    -0.316 N 
ATOM     17  H1  GK6 A   1      -0.125  -5.177  -5.268  0.00  0.00    +0.220 HD
BRANCH  16  18
ATOM     18  C25 GK6 A   1      -0.564  -6.773  -6.606  0.00  0.00    +0.165 C 
BRANCH  18  19
ATOM     19  C26 GK6 A   1       0.526  -6.230  -7.541  0.00  0.00    +0.011 C 
ATOM     20  C28 GK6 A   1      -0.033  -6.161  -8.963  0.00  0.00    +0.017 C 
ATOM     21  C27 GK6 A   1       0.127  -4.883  -8.146  0.00  0.00    +0.017 C 
ENDBRANCH  18  19
ENDBRANCH  16  18
ENDBRANCH   8  15
ENDBRANCH   1  13
BRANCH   5  22
ATOM     22  N1  GK6 A   1       1.286  -3.084   3.679  0.00  0.00    -0.264 N 
ATOM     23  C6  GK6 A   1       1.315  -3.963   4.713  0.00  0.00    +0.170 C 
ATOM     24  O1  GK6 A   1       0.346  -4.606   5.104  0.00  0.00    -0.419 OA
ATOM     25  H19 GK6 A   1       2.088  -2.499   3.556  0.00  0.00    +0.273 HD
BRANCH  23  26
ATOM     26  C7  GK6 A   1       2.604  -4.163   5.503  0.00  0.00    +0.064 A 
ATOM     27  C11 GK6 A   1       3.418  -5.289   5.246  0.00  0.00    +0.135 A 
ATOM     28  C10 GK6 A   1       4.594  -5.475   6.003  0.00  0.00    +0.043 A 
ATOM     29  N2  GK6 A   1       4.895  -4.581   6.977  0.00  0.00    -0.295 NA
ATOM     30  C9  GK6 A   1       4.126  -3.500   7.248  0.00  0.00    +0.101 A 
ATOM     31  C8  GK6 A   1       2.952  -3.263   6.524  0.00  0.00    +0.086 A 
ATOM     32  N3  GK6 A   1       5.413  -6.611   5.784  0.00  0.00    -0.337 N 
ATOM     33  C15 GK6 A   1       6.415  -6.937   6.799  0.00  0.00    +0.202 C 
ATOM     34  C14 GK6 A   1       7.508  -7.831   6.211  0.00  0.00    +0.218 C 
ATOM     35  O2  GK6 A   1       6.925  -8.867   5.425  0.00  0.00    -0.453 OA
ATOM     36  C13 GK6 A   1       6.355  -8.282   4.256  0.00  0.00    +0.218 C 
ATOM     37  C12 GK6 A   1       5.105  -7.481   4.629  0.00  0.00    +0.202 C 
ENDBRANCH  23  26
ENDBRANCH   5  22
TORSDOF 6
ENDMDL
MODEL 4
REMARK VINA RESULT:      -5.2      3.921      7.078
REMARK  Name = 3d83_ligand
REMARK  7 active torsions:
REMARK  status: ('A' for Active; 'I' for Inactive)
REMARK    1  A    between atoms: C24_2  and  C21_8
REMARK    2  A    between atoms: N4_3  and  C25_4
REMARK    3  A    between atoms: C25_4  and  C26_5
REMARK    4  A    between atoms: C18_13  and  C17_14
REMARK    5  A    between atoms: C2_15  and  C1_16
REMARK    6  A    between atoms: C5_18  and  N1_21
REMARK    7  A    between atoms: C6_22  and  C7_24
REMARK                            x       y       z     vdW  Elec       q    Type
REMARK                         _______ _______ _______ _____ _____    ______ ____
ROOT
ATOM      1  C17 GK6 A   1      -1.187  -3.622   0.304  0.00  0.00    -0.042 A 
ATOM      2  C2  GK6 A   1      -0.170  -3.534   1.271  0.00  0.00    -0.074 A 
ATOM      3  C1  GK6 A   1       1.114  -4.312   1.100  0.00  0.00    +0.106 C 
ATOM      4  C16 GK6 A   1      -2.357  -2.870   0.508  0.00  0.00    +0.050 A 
ATOM      5  C5  GK6 A   1      -2.531  -2.083   1.673  0.00  0.00    +0.009 A 
ATOM      6  C4  GK6 A   1      -1.516  -2.025   2.635  0.00  0.00    +0.033 A 
ATOM      7  C3  GK6 A   1      -0.327  -2.752   2.426  0.00  0.00    +0.000 A 
ENDROOT
BRANCH   1  13
ATOM      8  C21 GK6 A   1      -0.564  -5.997  -3.164  0.00  0.00    +0.032 A 
ATOM      9  C20 GK6 A   1      -1.228  -6.521  -2.054  0.00  0.00    +0.058 A 
ATOM     10  C19 GK6 A   1      -1.419  -5.746  -0.888  0.00  0.00    +0.030 A 
ATOM     11  C22 GK6 A   1      -0.095  -4.681  -3.109  0.00  0.00    +0.058 A 
ATOM     12  C23 GK6 A   1      -0.287  -3.908  -1.946  0.00  0.00    +0.030 A 
ATOM     13  C18 GK6 A   1      -0.939  -4.439  -0.824  0.00  0.00    -0.046 A 
BRANCH   8  15
ATOM     14  O3  GK6 A   1       0.344  -7.869  -4.371  0.00  0.00    -0.440 OA
ATOM     15  C24 GK6 A   1      -0.360  -6.853  -4.420  0.00  0.00    +0.137 C 
ATOM     16  N4  GK6 A   1      -0.924  -6.449  -5.576  0.00  0.00    -0.316 N 
ATOM     17  H1  GK6 A   1      -1.498  -5.630  -5.562  0.00  0.00    +0.220 HD
BRANCH  16  18
ATOM     18  C25 GK6 A   1      -0.741  -7.147  -6.849  0.00  0.00    +0.165 C 
BRANCH  18  19
ATOM     19  C26 GK6 A   1       0.388  -6.529  -7.687  0.00  0.00    +0.011 C 
ATOM     20  C28 GK6 A   1      -0.162  -6.176  -9.070  0.00  0.00    +0.017 C 
ATOM     21  C27 GK6 A   1       0.087  -5.073  -8.047  0.00  0.00    +0.017 C 
ENDBRANCH  18  19
ENDBRANCH  16  18
ENDBRANCH   8  15
ENDBRANCH   1  13
BRANCH   5  22
ATOM     22  N1  GK6 A   1      -3.678  -1.373   1.895  0.00  0.00    -0.264 N 
ATOM     23  C6  GK6 A   1      -4.272  -0.527   1.015  0.00  0.00    +0.170 C 
ATOM     24  O1  GK6 A   1      -3.759  -0.142  -0.031  0.00  0.00    -0.419 OA
ATOM     25  H19 GK6 A   1      -4.119  -1.488   2.785  0.00  0.00    +0.273 HD
BRANCH  23  26
ATOM     26  C7  GK6 A   1      -5.650   0.046   1.327  0.00  0.00    +0.064 A 
ATOM     27  C11 GK6 A   1      -5.764   1.203   2.131  0.00  0.00    +0.135 A 
ATOM     28  C10 GK6 A   1      -7.046   1.708   2.434  0.00  0.00    +0.043 A 
ATOM     29  N2  GK6 A   1      -8.136   1.049   1.968  0.00  0.00    -0.295 NA
ATOM     30  C9  GK6 A   1      -8.053  -0.066   1.205  0.00  0.00    +0.101 A 
ATOM     31  C8  GK6 A   1      -6.806  -0.606   0.868  0.00  0.00    +0.086 A 
ATOM     32  N3  GK6 A   1      -7.188   2.850   3.260  0.00  0.00    -0.337 N 
ATOM     33  C15 GK6 A   1      -8.512   3.130   3.817  0.00  0.00    +0.202 C 
ATOM     34  C14 GK6 A   1      -8.621   4.596   4.239  0.00  0.00    +0.218 C 
ATOM     35  O2  GK6 A   1      -7.449   4.992   4.948  0.00  0.00    -0.453 OA
ATOM     36  C13 GK6 A   1      -6.356   5.023   4.033  0.00  0.00    +0.218 C 
ATOM     37  C12 GK6 A   1      -5.969   3.597   3.633  0.00  0.00    +0.202 C 
ENDBRANCH  23  26
ENDBRANCH   5  22
TORSDOF 6
ENDMDL
MODEL 5
REMARK VINA RESULT:      -5.1      1.676      2.408
REMARK  Name = 3d83_ligand
REMARK  7 active torsions:
REMARK  status: ('A' for Active; 'I' for Inactive)
REMARK    1  A    between atoms: C24_2  and  C21_8
REMARK    2  A    between atoms: N4_3  and  C25_4
REMARK    3  A    between atoms: C25_4  and  C26_5
REMARK    4  A    between atoms: C18_13  and  C17_14
REMARK    5  A    between atoms: C2_15  and  C1_16
REMARK    6  A    between atoms: C5_18  and  N1_21
REMARK    7  A    between atoms: C6_22  and  C7_24
REMARK                            x       y       z     vdW  Elec       q    Type
REMARK                         _______ _______ _______ _____ _____    ______ ____
ROOT
ATOM      1  C17 GK6 A   1      -3.447  -2.360   1.281  0.00  0.00    -0.042 A 
ATOM      2  C2  GK6 A   1      -4.142  -3.270   0.465  0.00  0.00    -0.074 A 
ATOM      3  C1  GK6 A   1      -3.611  -4.670   0.260  0.00  0.00    +0.106 C 
ATOM      4  C16 GK6 A   1      -3.990  -1.074   1.445  0.00  0.00    +0.050 A 
ATOM      5  C5  GK6 A   1      -5.176  -0.686   0.775  0.00  0.00    +0.009 A 
ATOM      6  C4  GK6 A   1      -5.843  -1.600  -0.049  0.00  0.00    +0.033 A 
ATOM      7  C3  GK6 A   1      -5.323  -2.901  -0.197  0.00  0.00    +0.000 A 
ENDROOT
BRANCH   1  13
ATOM      8  C21 GK6 A   1       0.122  -3.600   3.226  0.00  0.00    +0.032 A 
ATOM      9  C20 GK6 A   1       0.131  -3.263   1.873  0.00  0.00    +0.058 A 
ATOM     10  C19 GK6 A   1      -1.055  -2.872   1.212  0.00  0.00    +0.030 A 
ATOM     11  C22 GK6 A   1      -1.086  -3.536   3.928  0.00  0.00    +0.058 A 
ATOM     12  C23 GK6 A   1      -2.269  -3.145   3.269  0.00  0.00    +0.030 A 
ATOM     13  C18 GK6 A   1      -2.263  -2.822   1.904  0.00  0.00    -0.046 A 
BRANCH   8  15
ATOM     14  O3  GK6 A   1       1.874  -5.164   3.749  0.00  0.00    -0.440 OA
ATOM     15  C24 GK6 A   1       1.417  -4.028   3.928  0.00  0.00    +0.137 C 
ATOM     16  N4  GK6 A   1       2.012  -3.160   4.771  0.00  0.00    -0.316 N 
ATOM     17  H1  GK6 A   1       1.613  -2.248   4.871  0.00  0.00    +0.220 HD
BRANCH  16  18
ATOM     18  C25 GK6 A   1       3.210  -3.484   5.546  0.00  0.00    +0.165 C 
BRANCH  18  19
ATOM     19  C26 GK6 A   1       2.953  -3.417   7.058  0.00  0.00    +0.011 C 
ATOM     20  C28 GK6 A   1       3.821  -4.467   7.753  0.00  0.00    +0.017 C 
ATOM     21  C27 GK6 A   1       4.207  -2.994   7.823  0.00  0.00    +0.017 C 
ENDBRANCH  18  19
ENDBRANCH  16  18
ENDBRANCH   8  15
ENDBRANCH   1  13
BRANCH   5  22
ATOM     22  N1  GK6 A   1      -5.694   0.572   0.904  0.00  0.00    -0.264 N 
ATOM     23  C6  GK6 A   1      -6.585   0.972   1.846  0.00  0.00    +0.170 C 
ATOM     24  O1  GK6 A   1      -7.189   0.212   2.597  0.00  0.00    -0.419 OA
ATOM     25  H19 GK6 A   1      -5.389   1.260   0.245  0.00  0.00    +0.273 HD
BRANCH  23  26
ATOM     26  C7  GK6 A   1      -6.928   2.451   1.987  0.00  0.00    +0.064 A 
ATOM     27  C11 GK6 A   1      -6.418   3.189   3.080  0.00  0.00    +0.135 A 
ATOM     28  C10 GK6 A   1      -6.765   4.551   3.212  0.00  0.00    +0.043 A 
ATOM     29  N2  GK6 A   1      -7.603   5.105   2.301  0.00  0.00    -0.295 NA
ATOM     30  C9  GK6 A   1      -8.112   4.416   1.253  0.00  0.00    +0.101 A 
ATOM     31  C8  GK6 A   1      -7.796   3.064   1.069  0.00  0.00    +0.086 A 
ATOM     32  N3  GK6 A   1      -6.290   5.306   4.313  0.00  0.00    -0.337 N 
ATOM     33  C15 GK6 A   1      -6.935   6.589   4.591  0.00  0.00    +0.202 C 
ATOM     34  C14 GK6 A   1      -6.025   7.477   5.441  0.00  0.00    +0.218 C 
ATOM     35  O2  GK6 A   1      -5.452   6.721   6.504  0.00  0.00    -0.453 OA
ATOM     36  C13 GK6 A   1      -4.527   5.788   5.949  0.00  0.00    +0.218 C 
ATOM     37  C12 GK6 A   1      -5.282   4.687   5.200  0.00  0.00    +0.202 C 
ENDBRANCH  23  26
ENDBRANCH   5  22
TORSDOF 6
ENDMDL
MODEL 6
REMARK VINA RESULT:      -5.1      1.811      2.519
REMARK  Name = 3d83_ligand
REMARK  7 active torsions:
REMARK  status: ('A' for Active; 'I' for Inactive)
REMARK    1  A    between atoms: C24_2  and  C21_8
REMARK    2  A    between atoms: N4_3  and  C25_4
REMARK    3  A    between atoms: C25_4  and  C26_5
REMARK    4  A    between atoms: C18_13  and  C17_14
REMARK    5  A    between atoms: C2_15  and  C1_16
REMARK    6  A    between atoms: C5_18  and  N1_21
REMARK    7  A    between atoms: C6_22  and  C7_24
REMARK                            x       y       z     vdW  Elec       q    Type
REMARK                         _______ _______ _______ _____ _____    ______ ____
ROOT
ATOM      1  C17 GK6 A   1       0.321  -4.480   0.838  0.00  0.00    -0.042 A 
ATOM      2  C2  GK6 A   1       0.747  -4.784  -0.467  0.00  0.00    -0.074 A 
ATOM      3  C1  GK6 A   1       2.132  -5.337  -0.707  0.00  0.00    +0.106 C 
ATOM      4  C16 GK6 A   1      -0.980  -3.976   1.006  0.00  0.00    +0.050 A 
ATOM      5  C5  GK6 A   1      -1.824  -3.735  -0.105  0.00  0.00    +0.009 A 
ATOM      6  C4  GK6 A   1      -1.375  -4.025  -1.399  0.00  0.00    +0.033 A 
ATOM      7  C3  GK6 A   1      -0.083  -4.558  -1.576  0.00  0.00    +0.000 A 
ENDROOT
BRANCH   1  13
ATOM      8  C21 GK6 A   1       2.926  -5.227   4.111  0.00  0.00    +0.032 A 
ATOM      9  C20 GK6 A   1       2.984  -4.017   3.419  0.00  0.00    +0.058 A 
ATOM     10  C19 GK6 A   1       2.138  -3.769   2.315  0.00  0.00    +0.030 A 
ATOM     11  C22 GK6 A   1       2.005  -6.195   3.700  0.00  0.00    +0.058 A 
ATOM     12  C23 GK6 A   1       1.160  -5.947   2.599  0.00  0.00    +0.030 A 
ATOM     13  C18 GK6 A   1       1.230  -4.737   1.893  0.00  0.00    -0.046 A 
BRANCH   8  15
ATOM     14  O3  GK6 A   1       4.961  -6.009   5.129  0.00  0.00    -0.440 OA
ATOM     15  C24 GK6 A   1       3.855  -5.484   5.305  0.00  0.00    +0.137 C 
ATOM     16  N4  GK6 A   1       3.421  -5.166   6.541  0.00  0.00    -0.316 N 
ATOM     17  H1  GK6 A   1       2.526  -4.729   6.631  0.00  0.00    +0.220 HD
BRANCH  16  18
ATOM     18  C25 GK6 A   1       4.192  -5.429   7.757  0.00  0.00    +0.165 C 
BRANCH  18  19
ATOM     19  C26 GK6 A   1       4.133  -4.252   8.741  0.00  0.00    +0.011 C 
ATOM     20  C28 GK6 A   1       5.544  -3.687   8.919  0.00  0.00    +0.017 C 
ATOM     21  C27 GK6 A   1       4.526  -2.937   8.067  0.00  0.00    +0.017 C 
ENDBRANCH  18  19
ENDBRANCH  16  18
ENDBRANCH   8  15
ENDBRANCH   1  13
BRANCH   5  22
ATOM     22  N1  GK6 A   1      -3.080  -3.216   0.046  0.00  0.00    -0.264 N 
ATOM     23  C6  GK6 A   1      -3.379  -1.999   0.567  0.00  0.00    +0.170 C 
ATOM     24  O1  GK6 A   1      -2.575  -1.276   1.146  0.00  0.00    -0.419 OA
ATOM     25  H19 GK6 A   1      -3.846  -3.784  -0.255  0.00  0.00    +0.273 HD
BRANCH  23  26
ATOM     26  C7  GK6 A   1      -4.809  -1.475   0.495  0.00  0.00    +0.064 A 
ATOM     27  C11 GK6 A   1      -5.197  -0.380   1.301  0.00  0.00    +0.135 A 
ATOM     28  C10 GK6 A   1      -6.531   0.078   1.244  0.00  0.00    +0.043 A 
ATOM     29  N2  GK6 A   1      -7.411  -0.567   0.438  0.00  0.00    -0.295 NA
ATOM     30  C9  GK6 A   1      -7.065  -1.623  -0.335  0.00  0.00    +0.101 A 
ATOM     31  C8  GK6 A   1      -5.755  -2.115  -0.323  0.00  0.00    +0.086 A 
ATOM     32  N3  GK6 A   1      -6.952   1.156   2.061  0.00  0.00    -0.337 N 
ATOM     33  C15 GK6 A   1      -8.390   1.371   2.220  0.00  0.00    +0.202 C 
ATOM     34  C14 GK6 A   1      -8.674   2.802   2.682  0.00  0.00    +0.218 C 
ATOM     35  O2  GK6 A   1      -7.777   3.168   3.727  0.00  0.00    -0.453 OA
ATOM     36  C13 GK6 A   1      -6.466   3.285   3.178  0.00  0.00    +0.218 C 
ATOM     37  C12 GK6 A   1      -5.924   1.898   2.822  0.00  0.00    +0.202 C 
ENDBRANCH  23  26
ENDBRANCH   5  22
TORSDOF 6
ENDMDL
MODEL 7
REMARK VINA RESULT:      -5.1      5.167     11.969
REMARK  Name = 3d83_ligand
REMARK  7 active torsions:
REMARK  status: ('A' for Active; 'I' for Inactive)
REMARK    1  A    between atoms: C24_2  and  C21_8
REMARK    2  A    between atoms: N4_3  and  C25_4
REMARK    3  A    between atoms: C25_4  and  C26_5
REMARK    4  A    between atoms: C18_13  and  C17_14
REMARK    5  A    between atoms: C2_15  and  C1_16
REMARK    6  A    between atoms: C5_18  and  N1_21
REMARK    7  A    between atoms: C6_22  and  C7_24
REMARK                            x       y       z     vdW  Elec       q    Type
REMARK                         _______ _______ _______ _____ _____    ______ ____
ROOT
ATOM      1  C17 GK6 A   1       0.546  -4.322   2.110  0.00  0.00    -0.042 A 
ATOM      2  C2  GK6 A   1       0.382  -5.433   2.954  0.00  0.00    -0.074 A 
ATOM      3  C1  GK6 A   1      -0.970  -5.744   3.551  0.00  0.00    +0.106 C 
ATOM      4  C16 GK6 A   1       1.824  -4.084   1.573  0.00  0.00    +0.050 A 
ATOM      5  C5  GK6 A   1       2.926  -4.908   1.908  0.00  0.00    +0.009 A 
ATOM      6  C4  GK6 A   1       2.747  -5.999   2.767  0.00  0.00    +0.033 A 
ATOM      7  C3  GK6 A   1       1.465  -6.263   3.286  0.00  0.00    +0.000 A 
ENDROOT
BRANCH   1  13
ATOM      8  C21 GK6 A   1      -2.811  -1.889   1.181  0.00  0.00    +0.032 A 
ATOM      9  C20 GK6 A   1      -2.128  -1.726   2.387  0.00  0.00    +0.058 A 
ATOM     10  C19 GK6 A   1      -1.025  -2.546   2.714  0.00  0.00    +0.030 A 
ATOM     11  C22 GK6 A   1      -2.380  -2.876   0.290  0.00  0.00    +0.058 A 
ATOM     12  C23 GK6 A   1      -1.279  -3.693   0.616  0.00  0.00    +0.030 A 
ATOM     13  C18 GK6 A   1      -0.602  -3.541   1.835  0.00  0.00    -0.046 A 
BRANCH   8  15
ATOM     14  O3  GK6 A   1      -3.884  -0.064   0.037  0.00  0.00    -0.440 OA
ATOM     15  C24 GK6 A   1      -4.011  -0.994   0.843  0.00  0.00    +0.137 C 
ATOM     16  N4  GK6 A   1      -5.182  -1.218   1.472  0.00  0.00    -0.316 N 
ATOM     17  H1  GK6 A   1      -5.240  -1.992   2.104  0.00  0.00    +0.220 HD
BRANCH  16  18
ATOM     18  C25 GK6 A   1      -6.371  -0.387   1.281  0.00  0.00    +0.165 C 
BRANCH  18  19
ATOM     19  C26 GK6 A   1      -7.531  -1.177   0.659  0.00  0.00    +0.011 C 
ATOM     20  C28 GK6 A   1      -7.690  -0.753  -0.802  0.00  0.00    +0.017 C 
ATOM     21  C27 GK6 A   1      -7.047  -2.094  -0.465  0.00  0.00    +0.017 C 
ENDBRANCH  18  19
ENDBRANCH  16  18
ENDBRANCH   8  15
ENDBRANCH   1  13
BRANCH   5  22
ATOM     22  N1  GK6 A   1       4.178  -4.666   1.417  0.00  0.00    -0.264 N 
ATOM     23  C6  GK6 A   1       4.646  -5.057   0.204  0.00  0.00    +0.170 C 
ATOM     24  O1  GK6 A   1       4.069  -5.843  -0.542  0.00  0.00    -0.419 OA
ATOM     25  H19 GK6 A   1       4.807  -4.155   2.003  0.00  0.00    +0.273 HD
BRANCH  23  26
ATOM     26  C7  GK6 A   1       5.997  -4.550  -0.288  0.00  0.00    +0.064 A 
ATOM     27  C11 GK6 A   1       6.053  -3.486  -1.216  0.00  0.00    +0.135 A 
ATOM     28  C10 GK6 A   1       7.310  -3.045  -1.683  0.00  0.00    +0.043 A 
ATOM     29  N2  GK6 A   1       8.429  -3.676  -1.247  0.00  0.00    -0.295 NA
ATOM     30  C9  GK6 A   1       8.400  -4.704  -0.367  0.00  0.00    +0.101 A 
ATOM     31  C8  GK6 A   1       7.181  -5.178   0.134  0.00  0.00    +0.086 A 
ATOM     32  N3  GK6 A   1       7.392  -1.999  -2.635  0.00  0.00    -0.337 N 
ATOM     33  C15 GK6 A   1       8.664  -1.808  -3.333  0.00  0.00    +0.202 C 
ATOM     34  C14 GK6 A   1       8.753  -0.397  -3.915  0.00  0.00    +0.218 C 
ATOM     35  O2  GK6 A   1       7.528  -0.051  -4.556  0.00  0.00    -0.453 OA
ATOM     36  C13 GK6 A   1       6.522   0.101  -3.557  0.00  0.00    +0.218 C 
ATOM     37  C12 GK6 A   1       6.154  -1.267  -2.976  0.00  0.00    +0.202 C 
ENDBRANCH  23  26
ENDBRANCH   5  22
TORSDOF 6
ENDMDL
MODEL 8
REMARK VINA RESULT:      -5.1      4.498      7.911
REMARK  Name = 3d83_ligand
REMARK  7 active torsions:
REMARK  status: ('A' for Active; 'I' for Inactive)
REMARK    1  A    between atoms: C24_2  and  C21_8
REMARK    2  A    between atoms: N4_3  and  C25_4
REMARK    3  A    between atoms: C25_4  and  C26_5
REMARK    4  A    between atoms: C18_13  and  C17_14
REMARK    5  A    between atoms: C2_15  and  C1_16
REMARK    6  A    between atoms: C5_18  and  N1_21
REMARK    7  A    between atoms: C6_22  and  C7_24
REMARK                            x       y       z     vdW  Elec       q    Type
REMARK                         _______ _______ _______ _____ _____    ______ ____
ROOT
ATOM      1  C17 GK6 A   1       0.861  -4.566   0.948  0.00  0.00    -0.042 A 
ATOM      2  C2  GK6 A   1       2.156  -4.440   1.480  0.00  0.00    -0.074 A 
ATOM      3  C1  GK6 A   1       3.343  -5.008   0.738  0.00  0.00    +0.106 C 
ATOM      4  C16 GK6 A   1      -0.207  -4.011   1.674  0.00  0.00    +0.050 A 
ATOM      5  C5  GK6 A   1       0.003  -3.385   2.928  0.00  0.00    +0.009 A 
ATOM      6  C4  GK6 A   1       1.298  -3.288   3.451  0.00  0.00    +0.033 A 
ATOM      7  C3  GK6 A   1       2.379  -3.815   2.717  0.00  0.00    +0.000 A 
ENDROOT
BRANCH   1  13
ATOM      8  C21 GK6 A   1       0.323  -6.473  -2.811  0.00  0.00    +0.032 A 
ATOM      9  C20 GK6 A   1       0.397  -7.224  -1.638  0.00  0.00    +0.058 A 
ATOM     10  C19 GK6 A   1       0.599  -6.600  -0.386  0.00  0.00    +0.030 A 
ATOM     11  C22 GK6 A   1       0.442  -5.082  -2.730  0.00  0.00    +0.058 A 
ATOM     12  C23 GK6 A   1       0.643  -4.460  -1.481  0.00  0.00    +0.030 A 
ATOM     13  C18 GK6 A   1       0.734  -5.216  -0.303  0.00  0.00    -0.046 A 
BRANCH   8  15
ATOM     14  O3  GK6 A   1       0.514  -8.320  -4.340  0.00  0.00    -0.440 OA
ATOM     15  C24 GK6 A   1       0.109  -7.165  -4.163  0.00  0.00    +0.137 C 
ATOM     16  N4  GK6 A   1      -0.486  -6.473  -5.156  0.00  0.00    -0.316 N 
ATOM     17  H1  GK6 A   1      -0.811  -5.548  -4.960  0.00  0.00    +0.220 HD
BRANCH  16  18
ATOM     18  C25 GK6 A   1      -0.680  -7.006  -6.505  0.00  0.00    +0.165 C 
BRANCH  18  19
ATOM     19  C26 GK6 A   1       0.388  -6.499  -7.484  0.00  0.00    +0.011 C 
ATOM     20  C28 GK6 A   1      -0.271  -6.232  -8.838  0.00  0.00    +0.017 C 
ATOM     21  C27 GK6 A   1       0.103  -5.065  -7.931  0.00  0.00    +0.017 C 
ENDBRANCH  18  19
ENDBRANCH  16  18
ENDBRANCH   8  15
ENDBRANCH   1  13
BRANCH   5  22
ATOM     22  N1  GK6 A   1      -1.032  -2.871   3.656  0.00  0.00    -0.264 N 
ATOM     23  C6  GK6 A   1      -1.837  -1.844   3.279  0.00  0.00    +0.170 C 
ATOM     24  O1  GK6 A   1      -1.625  -1.116   2.315  0.00  0.00    -0.419 OA
ATOM     25  H19 GK6 A   1      -1.215  -3.289   4.546  0.00  0.00    +0.273 HD
BRANCH  23  26
ATOM     26  C7  GK6 A   1      -3.071  -1.505   4.107  0.00  0.00    +0.064 A 
ATOM     27  C11 GK6 A   1      -4.183  -0.888   3.490  0.00  0.00    +0.135 A 
ATOM     28  C10 GK6 A   1      -5.309  -0.555   4.273  0.00  0.00    +0.043 A 
ATOM     29  N2  GK6 A   1      -5.278  -0.811   5.605  0.00  0.00    -0.295 NA
ATOM     30  C9  GK6 A   1      -4.221  -1.392   6.220  0.00  0.00    +0.101 A 
ATOM     31  C8  GK6 A   1      -3.082  -1.748   5.490  0.00  0.00    +0.086 A 
ATOM     32  N3  GK6 A   1      -6.425   0.089   3.684  0.00  0.00    -0.337 N 
ATOM     33  C15 GK6 A   1      -7.404   0.711   4.576  0.00  0.00    +0.202 C 
ATOM     34  C14 GK6 A   1      -8.742   0.902   3.859  0.00  0.00    +0.218 C 
ATOM     35  O2  GK6 A   1      -8.528   1.431   2.553  0.00  0.00    -0.453 OA
ATOM     36  C13 GK6 A   1      -7.901   0.428   1.755  0.00  0.00    +0.218 C 
ATOM     37  C12 GK6 A   1      -6.454   0.227   2.213  0.00  0.00    +0.202 C 
ENDBRANCH  23  26
ENDBRANCH   5  22
TORSDOF 6
ENDMDL
MODEL 9
REMARK VINA RESULT:      -5.0      3.415     11.072
REMARK  Name = 3d83_ligand
REMARK  7 active torsions:
REMARK  status: ('A' for Active; 'I' for Inactive)
REMARK    1  A    between atoms: C24_2  and  C21_8
REMARK    2  A    between atoms: N4_3  and  C25_4
REMARK    3  A    between atoms: C25_4  and  C26_5
REMARK    4  A    between atoms: C18_13  and  C17_14
REMARK    5  A    between atoms: C2_15  and  C1_16
REMARK    6  A    between atoms: C5_18  and  N1_21
REMARK    7  A    between atoms: C6_22  and  C7_24
REMARK                            x       y       z     vdW  Elec       q    Type
REMARK                         _______ _______ _______ _____ _____    ______ ____
ROOT
ATOM      1  C17 GK6 A   1      -4.755  -1.803   0.588  0.00  0.00    -0.042 A 
ATOM      2  C2  GK6 A   1      -5.756  -2.723   0.233  0.00  0.00    -0.074 A 
ATOM      3  C1  GK6 A   1      -7.193  -2.479   0.633  0.00  0.00    +0.106 C 
ATOM      4  C16 GK6 A   1      -3.437  -2.073   0.182  0.00  0.00    +0.050 A 
ATOM      5  C5  GK6 A   1      -3.113  -3.260  -0.521  0.00  0.00    +0.009 A 
ATOM      6  C4  GK6 A   1      -4.122  -4.175  -0.847  0.00  0.00    +0.033 A 
ATOM      7  C3  GK6 A   1      -5.451  -3.898  -0.472  0.00  0.00    +0.000 A 
ENDROOT
BRANCH   1  13
ATOM      8  C21 GK6 A   1      -5.823   1.732   2.691  0.00  0.00    +0.032 A 
ATOM      9  C20 GK6 A   1      -5.415   0.590   3.381  0.00  0.00    +0.058 A 
ATOM     10  C19 GK6 A   1      -5.081  -0.597   2.692  0.00  0.00    +0.030 A 
ATOM     11  C22 GK6 A   1      -5.888   1.688   1.295  0.00  0.00    +0.058 A 
ATOM     12  C23 GK6 A   1      -5.553   0.504   0.607  0.00  0.00    +0.030 A 
ATOM     13  C18 GK6 A   1      -5.158  -0.649   1.302  0.00  0.00    -0.046 A 
BRANCH   8  15
ATOM     14  O3  GK6 A   1      -6.117   3.039   4.690  0.00  0.00    -0.440 OA
ATOM     15  C24 GK6 A   1      -6.189   3.011   3.454  0.00  0.00    +0.137 C 
ATOM     16  N4  GK6 A   1      -6.629   4.077   2.756  0.00  0.00    -0.316 N 
ATOM     17  H1  GK6 A   1      -6.655   4.012   1.758  0.00  0.00    +0.220 HD
BRANCH  16  18
ATOM     18  C25 GK6 A   1      -7.070   5.324   3.382  0.00  0.00    +0.165 C 
BRANCH  18  19
ATOM     19  C26 GK6 A   1      -6.196   6.516   2.969  0.00  0.00    +0.011 C 
ATOM     20  C28 GK6 A   1      -5.972   7.410   4.191  0.00  0.00    +0.017 C 
ATOM     21  C27 GK6 A   1      -4.850   6.504   3.696  0.00  0.00    +0.017 C 
ENDBRANCH  18  19
ENDBRANCH  16  18
ENDBRANCH   8  15
ENDBRANCH   1  13
BRANCH   5  22
ATOM     22  N1  GK6 A   1      -1.830  -3.547  -0.892  0.00  0.00    -0.264 N 
ATOM     23  C6  GK6 A   1      -0.904  -4.179  -0.126  0.00  0.00    +0.170 C 
ATOM     24  O1  GK6 A   1      -1.035  -4.411   1.071  0.00  0.00    -0.419 OA
ATOM     25  H19 GK6 A   1      -1.548  -3.268  -1.810  0.00  0.00    +0.273 HD
BRANCH  23  26
ATOM     26  C7  GK6 A   1       0.426  -4.604  -0.740  0.00  0.00    +0.064 A 
ATOM     27  C11 GK6 A   1       1.486  -5.020   0.097  0.00  0.00    +0.135 A 
ATOM     28  C10 GK6 A   1       2.719  -5.385  -0.483  0.00  0.00    +0.043 A 
ATOM     29  N2  GK6 A   1       2.861  -5.297  -1.829  0.00  0.00    -0.295 NA
ATOM     30  C9  GK6 A   1       1.864  -4.893  -2.651  0.00  0.00    +0.101 A 
ATOM     31  C8  GK6 A   1       0.618  -4.525  -2.130  0.00  0.00    +0.086 A 
ATOM     32  N3  GK6 A   1       3.806  -5.779   0.336  0.00  0.00    -0.337 N 
ATOM     33  C15 GK6 A   1       5.138  -5.817  -0.268  0.00  0.00    +0.202 C 
ATOM     34  C14 GK6 A   1       6.075  -6.709   0.549  0.00  0.00    +0.218 C 
ATOM     35  O2  GK6 A   1       5.929  -6.431   1.940  0.00  0.00    -0.453 OA
ATOM     36  C13 GK6 A   1       4.643  -6.884   2.359  0.00  0.00    +0.218 C 
ATOM     37  C12 GK6 A   1       3.556  -5.976   1.780  0.00  0.00    +0.202 C 
ENDBRANCH  23  26
ENDBRANCH   5  22
TORSDOF 6
ENDMDL
